CRYSTAL
PRIMVEC 1
      2.8510012281       1.6460771021       0.0000000000
     -2.8510012281       1.6460771021       0.0000000000
     -0.0003323587       0.0000000000       7.2378282311
PRIMCOORD 1
3 1
22       0.0000000000       0.0000000000       0.0000000000
17       1.9003668940       0.0000000000       5.6443195355
17       3.8013032036      -0.0000000000       1.5935086955

