CRYSTAL
PRIMVEC 1
      2.7846653955       1.6077311077       0.0000000000
     -2.7846653955       1.6077311077       0.0000000000
     -0.0001682541       0.0000000000       7.1832944600
PRIMCOORD 1
3 1
23       0.0000000000       0.0000000000       0.0000000000
17       1.8562780530       0.0000000000       5.6454058292
17       3.7128844839       0.0000000000       1.5378886308

